[TITLE]
EPANET Example Network 3
Example showing how the percent of Lake water in a dual-source
system changes over time.

[JUNCTIONS]
;ID              	Elev        	Demand      	Pattern         
 10              	44.8056     	0           	1               	;
 15              	9.7536      	0.0630901964	3               	;
 20              	39.3192     	0           	1               	;
 35              	3.81        	0.0630901964	4               	;
 40              	40.20312    	0           	1               	;
 50              	35.5092     	0           	1               	;
 60              	0           	0           	1               	;
 601             	0           	0           	1               	;
 61              	0           	0           	1               	;
 101             	12.8016     	11.983982806	1               	;
 103             	13.1064     	8.4036141605	1               	;
 105             	8.6868      	8.5405198867	1               	;
 107             	6.7056      	3.4472483313	1               	;
 109             	6.18744     	14.599071447	1               	;
 111             	3.048       	8.955022477 	1               	;
 113             	0.6096      	1.26243483  	1               	;
 115             	4.2672      	3.2869992324	1               	;
 117             	4.14528     	7.4263470182	1               	;
 119             	0.6096      	11.112076292	1               	;
 120             	0           	0           	1               	;
 121             	-0.6096     	2.6264448761	1               	;
 123             	3.3528      	0.0630901964	2               	;
 125             	3.3528      	2.8769129558	1               	;
 127             	17.0688     	1.1141728684	1               	;
 129             	15.5448     	0           	1               	;
 131             	1.8288      	2.6971058961	1               	;
 139             	9.4488      	0.3716012568	1               	;
 141             	1.2192      	0.62143843454	1               	;
 143             	-1.3716     	0.39115921768	1               	;
 145             	0.3048      	1.7431821265	1               	;
 147             	5.6388      	0.53942117922	1               	;
 149             	4.8768      	1.7078516165	1               	;
 151             	10.2108     	999.1152715759	1               	;
 153             	20.17776    	2.786693975 	1               	;
 157             	3.99288     	3.2674412716	1               	;
 159             	1.8288      	2.6068869152	1               	;
 161             	1.2192      	0.99682510312	1               	;
 163             	1.524       	0.59430965009	1               	;
 164             	1.524       	0           	1               	;
 166             	-0.6096     	0.16403451064	1               	;
 167             	-1.524      	0.91859325958	1               	;
 169             	-1.524      	0           	1               	;
 171             	-1.2192     	2.4819683264	1               	;
 173             	-1.2192     	0           	1               	;
 177             	2.4384      	3.6699567246	1               	;
 179             	2.4384      	0           	1               	;
 181             	2.4384      	0           	1               	;
 183             	3.3528      	0           	1               	;
 184             	4.8768      	0           	1               	;
 185             	4.8768      	1.6182635377	1               	;
 187             	3.81        	0           	1               	;
 189             	1.2192      	6.8086939955	1               	;
 191             	7.62        	5.1670870852	1               	;
 193             	5.4864      	4.4989619053	1               	;
 195             	4.7244      	0           	1               	;
 197             	7.0104      	1.0750569467	1               	;
 199             	-0.6096     	7.5279222344	1               	;
 201             	0.03048     	2.8144536614	1               	;
 203             	0.6096      	0.0630901964	5               	;
 204             	6.4008      	0           	1               	;
 205             	6.4008      	4.1235752367	1               	;
 206             	0.3048      	0           	1               	;
 207             	2.7432      	4.3778287282	1               	;
 208             	4.8768      	0           	1               	;
 209             	-0.6096     	0.054888470868	1               	;
 211             	2.1336      	0.54699200279	1               	;
 213             	2.1336      	0.87947733782	1               	;
 215             	2.1336      	5.8162852061	1               	;
 217             	1.8288      	1.5280445568	1               	;
 219             	1.2192      	2.6068869152	1               	;
 225             	2.4384      	1.4384564779	1               	;
 229             	3.2004      	4.049128805 	1               	;
 231             	1.524       	1.0397264367	1               	;
 237             	4.2672      	0.9848379658	1               	;
 239             	3.9624      	2.8144536614	1               	;
 241             	3.9624      	0           	1               	;
 243             	4.2672      	0.27381145238	1               	;
 247             	5.4864      	4.4402880226	1               	;
 249             	5.4864      	0           	1               	;
 251             	9.144       	1.524259145 	1               	;
 253             	10.9728     	3.4396775077	1               	;
 255             	8.2296      	2.5482130326	1               	;
 257             	5.1816      	0           	1               	;
 259             	7.62        	0           	1               	;
 261             	0           	0           	1               	;
 263             	0           	0           	1               	;
 265             	0           	0           	1               	;
 267             	6.4008      	0           	1               	;
 269             	0           	0           	1               	;
 271             	1.8288      	0           	1               	;
 273             	2.4384      	0           	1               	;
 275             	3.048       	0           	1               	;

[RESERVOIRS]
;ID              	Head        	Pattern         
 River           	67.056      	                	;
 Lake            	50.9016     	                	;

[TANKS]
;ID              	Elevation   	InitLevel   	MinLevel    	MaxLevel    	Diameter    	MinVol      	VolCurve        	Overflow
 1               	40.20312    	3.99288     	0.03048     	9.78408     	25.908      	0           	                	;
 2               	35.5092     	7.1628      	1.9812      	12.28344    	15.24       	0           	                	;
 3               	39.3192     	8.8392      	1.2192      	10.8204     	49.9872     	0           	                	;

[PIPES]
;ID              	Node1           	Node2           	Length      	Diameter    	Roughness   	MinorLoss   	Status
 20              	3               	20              	30.1752     	2514.6      	199         	0           	Open  	;
 40              	1               	40              	30.1752     	2514.6      	199         	0           	Open  	;
 50              	2               	50              	30.1752     	2514.6      	199         	0           	Open  	;
 60              	River           	60              	375.2088    	609.6       	140         	0           	Open  	;
 101             	10              	101             	4328.16     	457.2       	110         	0           	Open  	;
 103             	101             	103             	411.48      	406.4       	130         	0           	Open  	;
 105             	101             	105             	774.192     	304.8       	130         	0           	Open  	;
 107             	105             	107             	448.056     	304.8       	130         	0           	Open  	;
 109             	103             	109             	1200.912    	406.4       	130         	0           	Open  	;
 111             	109             	111             	609.6       	304.8       	130         	0           	Open  	;
 112             	115             	111             	353.568     	304.8       	130         	0           	Open  	;
 113             	111             	113             	512.064     	304.8       	130         	0           	Open  	;
 114             	115             	113             	609.6       	203.2       	130         	0           	Open  	;
 115             	107             	115             	594.36      	203.2       	130         	0           	Open  	;
 116             	113             	193             	505.968     	304.8       	130         	0           	Open  	;
 117             	263             	105             	830.58      	304.8       	130         	0           	Open  	;
 119             	115             	117             	664.464     	304.8       	130         	0           	Open  	;
 120             	119             	120             	222.504     	304.8       	130         	0           	Open  	;
 121             	120             	117             	569.976     	304.8       	130         	0           	Open  	;
 122             	121             	120             	624.84      	203.2       	130         	0           	Open  	;
 123             	121             	119             	609.6       	762         	141         	0           	Open  	;
 125             	123             	121             	457.2       	762         	141         	0           	Open  	;
 129             	121             	125             	283.464     	609.6       	130         	0           	Open  	;
 131             	125             	127             	987.552     	609.6       	130         	0           	Open  	;
 133             	20              	127             	239.268     	508         	130         	0           	Open  	;
 135             	127             	129             	274.32      	609.6       	130         	0           	Open  	;
 137             	129             	131             	1975.104    	406.4       	130         	0           	Open  	;
 145             	129             	139             	838.2       	203.2       	130         	0           	Open  	;
 147             	139             	141             	624.84      	203.2       	130         	0           	Open  	;
 149             	143             	141             	426.72      	203.2       	130         	0           	Open  	;
 151             	15              	143             	502.92      	203.2       	130         	0           	Open  	;
 153             	145             	141             	1069.848    	304.8       	130         	0           	Open  	;
 155             	147             	145             	670.56      	304.8       	130         	0           	Open  	;
 159             	147             	149             	268.224     	304.8       	130         	0           	Open  	;
 161             	149             	151             	310.896     	203.2       	130         	0           	Open  	;
 163             	151             	153             	356.616     	304.8       	130         	0           	Open  	;
 169             	125             	153             	1389.888    	203.2       	130         	0           	Open  	;
 171             	119             	151             	1054.608    	304.8       	130         	0           	Open  	;
 173             	119             	157             	633.984     	762         	141         	0           	Open  	;
 175             	157             	159             	886.968     	762         	141         	0           	Open  	;
 177             	159             	161             	609.6       	762         	141         	0           	Open  	;
 179             	161             	163             	131.064     	762         	141         	0           	Open  	;
 180             	163             	164             	45.72       	355.6       	130         	0           	Open  	;
 181             	164             	166             	149.352     	355.6       	130         	0           	Open  	;
 183             	265             	169             	179.832     	762         	141         	0           	Open  	;
 185             	167             	169             	18.288      	203.2       	130         	0           	Open  	;
 186             	187             	204             	30.44952    	203.2       	130         	0           	Open  	;
 187             	169             	171             	387.096     	762         	141         	0           	Open  	;
 189             	171             	173             	15.24       	762         	141         	0           	Open  	;
 191             	271             	171             	231.648     	609.6       	130         	0           	Open  	;
 193             	35              	181             	9.144       	609.6       	130         	0           	Open  	;
 195             	181             	177             	9.144       	304.8       	130         	0           	Open  	;
 197             	177             	179             	9.144       	304.8       	130         	0           	Open  	;
 199             	179             	183             	64.008      	304.8       	130         	0           	Open  	;
 201             	40              	179             	362.712     	304.8       	130         	0           	Open  	;
 202             	185             	184             	30.44952    	203.2       	130         	0           	Open  	;
 203             	183             	185             	155.448     	203.2       	130         	0           	Open  	;
 204             	184             	205             	1380.744    	304.8       	130         	0           	Open  	;
 205             	204             	185             	403.86      	304.8       	130         	0           	Open  	;
 207             	189             	183             	411.48      	304.8       	130         	0           	Open  	;
 209             	189             	187             	152.4       	203.2       	130         	0           	Open  	;
 211             	169             	269             	196.9008    	304.8       	130         	0           	Open  	;
 213             	191             	187             	780.288     	304.8       	130         	0           	Open  	;
 215             	267             	189             	374.904     	304.8       	130         	0           	Open  	;
 217             	191             	193             	158.496     	304.8       	130         	0           	Open  	;
 219             	193             	195             	109.728     	304.8       	130         	0           	Open  	;
 221             	161             	195             	701.04      	203.2       	130         	0           	Open  	;
 223             	197             	191             	350.52      	304.8       	130         	0           	Open  	;
 225             	111             	197             	850.392     	304.8       	130         	0           	Open  	;
 229             	173             	199             	1219.2      	609.6       	141         	0           	Open  	;
 231             	199             	201             	192.024     	609.6       	141         	0           	Open  	;
 233             	201             	203             	36.576      	609.6       	130         	0           	Open  	;
 235             	199             	273             	220.98      	304.8       	130         	0           	Open  	;
 237             	205             	207             	365.76      	304.8       	130         	0           	Open  	;
 238             	207             	206             	137.16      	304.8       	130         	0           	Open  	;
 239             	275             	207             	435.864     	304.8       	130         	0           	Open  	;
 240             	206             	208             	155.448     	304.8       	130         	0           	Open  	;
 241             	208             	209             	269.748     	304.8       	130         	0           	Open  	;
 243             	209             	211             	368.808     	406.4       	130         	0           	Open  	;
 245             	211             	213             	301.752     	406.4       	130         	0           	Open  	;
 247             	213             	215             	1306.068    	406.4       	130         	0           	Open  	;
 249             	215             	217             	505.968     	406.4       	130         	0           	Open  	;
 251             	217             	219             	624.84      	355.6       	130         	0           	Open  	;
 257             	217             	225             	475.488     	304.8       	130         	0           	Open  	;
 261             	213             	229             	670.56      	203.2       	130         	0           	Open  	;
 263             	229             	231             	597.408     	304.8       	130         	0           	Open  	;
 269             	211             	237             	633.984     	304.8       	130         	0           	Open  	;
 271             	237             	229             	240.792     	203.2       	130         	0           	Open  	;
 273             	237             	239             	155.448     	304.8       	130         	0           	Open  	;
 275             	239             	241             	10.668      	304.8       	130         	0           	Open  	;
 277             	241             	243             	670.56      	304.8       	130         	0           	Open  	;
 281             	241             	247             	135.636     	254         	130         	0           	Open  	;
 283             	239             	249             	131.064     	304.8       	130         	0           	Open  	;
 285             	247             	249             	3.048       	304.8       	130         	0           	Open  	;
 287             	247             	255             	423.672     	254         	130         	0           	Open  	;
 289             	50              	255             	281.94      	254         	130         	0           	Open  	;
 291             	255             	253             	335.28      	254         	130         	0           	Open  	;
 293             	255             	251             	335.28      	203.2       	130         	0           	Open  	;
 295             	249             	251             	441.96      	304.8       	130         	0           	Open  	;
 297             	120             	257             	196.596     	203.2       	130         	0           	Open  	;
 299             	257             	259             	106.68      	203.2       	130         	0           	Open  	;
 301             	259             	263             	426.72      	203.2       	130         	0           	Open  	;
 303             	257             	261             	426.72      	203.2       	130         	0           	Open  	;
 305             	117             	261             	196.596     	304.8       	130         	0           	Open  	;
 307             	261             	263             	106.68      	304.8       	130         	0           	Open  	;
 309             	265             	267             	481.584     	203.2       	130         	0           	Open  	;
 311             	193             	267             	356.616     	304.8       	130         	0           	Open  	;
 313             	269             	189             	196.9008    	304.8       	130         	0           	Open  	;
 315             	181             	271             	79.248      	609.6       	130         	0           	Open  	;
 317             	273             	275             	679.704     	203.2       	130         	0           	Open  	;
 319             	273             	205             	196.596     	304.8       	130         	0           	Open  	;
 321             	163             	265             	365.76      	762         	141         	0           	Open  	;
 323             	201             	275             	91.44       	304.8       	130         	0           	Open  	;
 325             	269             	271             	393.192     	203.2       	130         	0           	Open  	;
 329             	61              	123             	13868.4     	762         	140         	0           	Open  	;
 330             	60              	601             	0.3048      	762         	140         	0           	Closed	;
 333             	601             	61              	0.3048      	762         	140         	0           	Open  	;

[PUMPS]
;ID              	Node1           	Node2           	Parameters
 10              	Lake            	10              	HEAD 1	;
 335             	60              	61              	HEAD 2	;

[VALVES]
;ID              	Node1           	Node2           	Diameter    	Type	Setting     	MinorLoss   

[TAGS]

[DEMANDS]
;Junction        	Demand      	Pattern         	Category

[STATUS]
;ID              	Status/Setting
 10              	Closed

[PATTERNS]
;ID              	Multipliers
;
 1               	1.340000    	1.940000    	1.460000    	1.440000    	0.760000    	0.920000    
 1               	0.850000    	1.070000    	0.960000    	1.100000    	1.080000    	1.190000    
 1               	1.160000    	1.080000    	0.960000    	0.830000    	0.790000    	0.740000    
 1               	0.640000    	0.640000    	0.850000    	0.960000    	1.240000    	1.670000    
;
 2               	0.000000    	0.000000    	0.000000    	0.000000    	0.000000    	1219.000000 
 2               	0.000000    	0.000000    	0.000000    	1866.000000 	1836.000000 	1818.000000 
 2               	1818.000000 	1822.000000 	1822.000000 	1817.000000 	1824.000000 	1816.000000 
 2               	1833.000000 	1817.000000 	1830.000000 	1814.000000 	1840.000000 	1859.000000 
;
 3               	620.000000  	620.000000  	620.000000  	620.000000  	620.000000  	360.000000  
 3               	360.000000  	0.000000    	0.000000    	0.000000    	0.000000    	360.000000  
 3               	360.000000  	360.000000  	360.000000  	360.000000  	0.000000    	0.000000    
 3               	0.000000    	0.000000    	0.000000    	0.000000    	360.000000  	360.000000  
;
 4               	1637.000000 	1706.000000 	1719.000000 	1719.000000 	1791.000000 	1819.000000 
 4               	1777.000000 	1842.000000 	1815.000000 	1825.000000 	1856.000000 	1801.000000 
 4               	1819.000000 	1733.000000 	1664.000000 	1620.000000 	1613.000000 	1620.000000 
 4               	1616.000000 	1647.000000 	1627.000000 	1627.000000 	1671.000000 	1668.000000 
;
 5               	4439.000000 	4531.000000 	4511.000000 	4582.000000 	4531.000000 	4582.000000 
 5               	4572.000000 	4613.000000 	4643.000000 	4643.000000 	4592.000000 	4613.000000 
 5               	4531.000000 	4521.000000 	4449.000000 	4439.000000 	4449.000000 	4460.000000 
 5               	4439.000000 	4419.000000 	4368.000000 	4399.000000 	4470.000000 	4480.000000 

[CURVES]
;ID              	X-Value     	Y-Value
;PUMP: PUMP: 1
 1               	0.000000    	31.699200   
 1               	126.180393  	28.041600   
 1               	252.360786  	19.202400   
;PUMP: PUMP: 2
 2               	0.000000    	60.960000   
 2               	504.721571  	42.062400   
 2               	883.262750  	26.212800   

[CONTROLS]
Pump 10 Open AT TIME 1
Pump 10 Closed AT TIME 15
Pump 335 Open IF Tank 1 below 5.21208
Pump 335 Closed IF Tank 1 above 5.821680000000001
Pipe 330 Closed IF Tank 1 below 5.21208
Pipe 330 Open IF Tank 1 above 5.821680000000001


[RULES]


[ENERGY]
 Global Efficiency  	75.0000
 Global Price       	0.0000
 Demand Charge      	0.0000

[EMITTERS]
;Junction        	Coefficient

[QUALITY]
;Node            	InitQual

[SOURCES]
;Node            	Type        	Quality     	Pattern

[REACTIONS]
;Type     	Pipe/Tank       	Coefficient


[REACTIONS]
 Order Bulk            	1
 Order Tank            	1
 Order Wall            	1
 Global Bulk           	0.0000
 Global Wall           	0.0000
 Limiting Potential    	0.0000
 Roughness Correlation 	0.0000

[MIXING]
;Tank            	Model

[TIMES]
 Duration           	24:00 
 Hydraulic Timestep 	1:00 
 Quality Timestep   	0:05 
 Pattern Timestep   	1:00 
 Pattern Start      	0:00 
 Report Timestep    	1:00 
 Report Start       	0:00 
 Start ClockTime    	00:00:00 AM
 Statistic          	NONE

[REPORT]
 Status             	Yes
 Summary            	No
 Page               	0

[OPTIONS]
 Units              	LPS
 Headloss           	H-W
 Specific Gravity   	1
 Viscosity          	1
 Trials             	40
 Accuracy           	0.001
 CHECKFREQ          	2
 MAXCHECK           	10
 DAMPLIMIT          	0
 Unbalanced         	Continue 10
 Pattern            	1
 Demand Multiplier  	1
 Emitter Exponent   	0.5
 Quality            	Trace Lake
 Diffusivity        	1
 Tolerance          	0.01

[COORDINATES]
;Node            	X-Coord           	Y-Coord
10              	9.000             	27.850            
15              	38.680            	23.760            
20              	29.440            	26.910            
35              	25.460            	10.520            
40              	27.020            	9.810             
50              	33.010            	3.010             
60              	23.900            	29.940            
601             	23.000            	29.490            
61              	23.710            	29.030            
101             	13.810            	22.940            
103             	12.960            	21.310            
105             	16.970            	21.280            
107             	18.450            	20.460            
109             	17.640            	18.920            
111             	20.210            	17.530            
113             	22.040            	16.610            
115             	20.980            	19.180            
117             	21.690            	21.280            
119             	23.700            	22.760            
120             	22.080            	23.100            
121             	23.540            	25.500            
123             	23.370            	27.310            
125             	24.590            	25.640            
127             	29.290            	26.400            
129             	30.320            	26.390            
131             	37.890            	29.550            
139             	33.280            	24.540            
141             	35.680            	23.080            
143             	37.470            	21.970            
145             	33.020            	19.290            
147             	30.240            	20.380            
149             	29.620            	20.740            
151             	28.290            	21.390            
153             	28.130            	22.630            
157             	24.850            	20.160            
159             	23.120            	17.500            
161             	25.100            	15.280            
163             	25.390            	14.980            
164             	25.980            	15.140            
166             	26.480            	15.130            
167             	25.880            	12.980            
169             	25.680            	12.740            
171             	26.650            	11.800            
173             	26.870            	11.590            
177             	0.000             	0.000             
179             	25.710            	10.400            
181             	25.720            	10.740            
183             	25.450            	10.180            
184             	25.150            	9.520             
185             	25.010            	9.670             
187             	23.640            	11.040            
189             	24.150            	11.370            
191             	22.100            	14.070            
193             	22.880            	14.350            
195             	23.180            	14.720            
197             	20.970            	15.180            
199             	29.420            	8.440             
201             	30.890            	8.570             
203             	31.140            	8.890             
204             	23.800            	10.900            
205             	29.200            	6.460             
206             	31.660            	6.640             
207             	31.000            	6.610             
208             	32.540            	6.810             
209             	33.760            	6.590             
211             	34.200            	5.540             
213             	35.260            	6.160             
215             	39.950            	8.730             
217             	42.110            	8.670             
219             	44.860            	9.320             
225             	43.530            	7.380             
229             	36.160            	3.490             
231             	38.380            	2.540             
237             	35.370            	3.080             
239             	35.760            	2.310             
241             	35.870            	2.110             
243             	37.040            	0.000             
247             	35.020            	2.050             
249             	35.020            	1.810             
251             	34.150            	1.100             
253             	32.170            	1.880             
255             	33.510            	2.450             
257             	21.170            	23.320            
259             	20.800            	23.400            
261             	20.790            	21.450            
263             	20.320            	21.570            
265             	25.390            	13.600            
267             	23.380            	12.950            
269             	25.030            	12.140            
271             	25.970            	11.000            
273             	29.160            	7.380             
275             	31.070            	8.290             
River           	24.150            	31.060            
Lake            	5.240             	25.890            
1               	31.520            	12.550            
2               	29.210            	4.170             
3               	29.820            	30.750            

[VERTICES]
;Link            	X-Coord           	Y-Coord

[LABELS]
;X-Coord             Y-Coord             Label & Anchor Node
8.000             	29.420            	"LAKE"	
25.000            	31.100            	"RIVER"	

[BACKDROP]