; Filename: data/Net3LPS.inp
; WNTR: 0.4.0
; Created: 2021-10-05 13:28:57
[TITLE]
EPANET Example Network 3
Example showing how the percent of Lake water in a dual-source
system changes over time.

[JUNCTIONS]
;ID                      Elevation       Demand Pattern                 
 10                           44.8056               0 1                          ;
 20                           39.3192               0 1                          ;
 40                          40.20312               0 1                          ;
 50                           35.5092               0 1                          ;
 60                                 0               0 1                          ;
 601                                0               0 1                          ;
 61                                 0               0 1                          ;
 101                          12.8016    11.983982806 1                          ;
 105                           8.6868    8.5405198867 1                          ;
 111                            3.048     8.955022477 1                          ;
 113                           0.6096      1.26243483 1                          ;
 115                           4.2672    3.2869992324 1                          ;
 117                          4.14528    7.4263470182 1                          ;
 119                           0.6096    11.112076292 1                          ;
 120                                0               0 1                          ;
 121                          -0.6096    2.6264448761 1                          ;
 125                           3.3528    2.8769129558 1                          ;
 127                          17.0688    1.1141728684 1                          ;
 151                          10.2108    9.1152715759 1                          ;
 161                           1.2192   0.99682510312 1                          ;
 169                           -1.524               0 1                          ;
 171                          -1.2192    2.4819683264 1                          ;
 179                           2.4384               0 1                          ;
 183                           3.3528               0 1                          ;
 185                           4.8768    1.6182635377 1                          ;
 187                             3.81               0 1                          ;
 189                           1.2192    6.8086939955 1                          ;
 191                             7.62    5.1670870852 1                          ;
 193                           5.4864    4.4989619053 1                          ;
 199                          -0.6096    7.5279222344 1                          ;
 205                           6.4008    4.1235752367 1                          ;
 207                           2.7432    4.3778287282 1                          ;
 239                           3.9624    2.8144536614 1                          ;
 247                           5.4864    4.4402880226 1                          ;
 249                           5.4864               0 1                          ;
 255                           8.2296    2.5482130326 1                          ;
 257                           5.1816               0 1                          ;
 261                                0               0 1                          ;
 263                                0               0 1                          ;
 265                                0               0 1                          ;
 267                           6.4008               0 1                          ;
 269                                0               0 1                          ;
 271                           1.8288               0 1                          ;
 273                           2.4384               0 1                          ;
 275                            3.048               0 1                          ;

[RESERVOIRS]
;ID                                   Head                  Pattern
 River                         67.056                            ;
 Lake                         50.9016                            ;

[TANKS]
;ID                              Elevation           Init Level            Min Level            Max Level             Diameter           Min Volume Volume Curve         Overflow            
 1                           40.20312         3.99288         0.03048         9.78408          25.908               0                                             ;
 2                            35.5092          7.1628          1.9812        12.28344           15.24               0                                             ;
 3                            39.3192          8.8392          1.2192         10.8204         49.9872               0                                             ;

[PIPES]
;ID                   Node1                Node2                              Length             Diameter            Roughness           Minor Loss               Status
 20                   3                    20                           30.1752          2514.6             199               0                 Open   ;
 40                   1                    40                           30.1752          2514.6             199               0                 Open   ;
 50                   2                    50                           30.1752          2514.6             199               0                 Open   ;
 60                   River                60                          375.2088           609.6             140               0                 Open   ;
 101                  10                   101                          4328.16           457.2             110               0                 Open   ;
 105                  101                  105                          774.192           304.8             130               0                 Open   ;
 112                  115                  111                          353.568           304.8             130               0                 Open   ;
 113                  111                  113                          512.064           304.8             130               0                 Open   ;
 114                  115                  113                            609.6           203.2             130               0                 Open   ;
 116                  113                  193                          505.968           304.8             130               0                 Open   ;
 117                  263                  105                           830.58           304.8             130               0                 Open   ;
 119                  115                  117                          664.464           304.8             130               0                 Open   ;
 120                  119                  120                          222.504           304.8             130               0                 Open   ;
 121                  120                  117                          569.976           304.8             130               0                 Open   ;
 122                  121                  120                           624.84           203.2             130               0                 Open   ;
 123                  121                  119                            609.6             762             141               0                 Open   ;
 129                  121                  125                          283.464           609.6             130               0                 Open   ;
 131                  125                  127                          987.552           609.6             130               0                 Open   ;
 133                  20                   127                          239.268             508             130               0                 Open   ;
 171                  119                  151                         1054.608           304.8             130               0                 Open   ;
 183                  265                  169                          179.832             762             141               0                 Open   ;
 187                  169                  171                          387.096             762             141               0                 Open   ;
 191                  271                  171                          231.648           609.6             130               0                 Open   ;
 199                  179                  183                           64.008           304.8             130               0                 Open   ;
 201                  40                   179                          362.712           304.8             130               0                 Open   ;
 203                  183                  185                          155.448           203.2             130               0                 Open   ;
 207                  189                  183                           411.48           304.8             130               0                 Open   ;
 209                  189                  187                            152.4           203.2             130               0                 Open   ;
 211                  169                  269                         196.9008           304.8             130               0                 Open   ;
 213                  191                  187                          780.288           304.8             130               0                 Open   ;
 215                  267                  189                          374.904           304.8             130               0                 Open   ;
 217                  191                  193                          158.496           304.8             130               0                 Open   ;
 235                  199                  273                           220.98           304.8             130               0                 Open   ;
 237                  205                  207                           365.76           304.8             130               0                 Open   ;
 239                  275                  207                          435.864           304.8             130               0                 Open   ;
 283                  239                  249                          131.064           304.8             130               0                 Open   ;
 285                  247                  249                            3.048           304.8             130               0                 Open   ;
 287                  247                  255                          423.672             254             130               0                 Open   ;
 289                  50                   255                           281.94             254             130               0                 Open   ;
 297                  120                  257                          196.596           203.2             130               0                 Open   ;
 303                  257                  261                           426.72           203.2             130               0                 Open   ;
 305                  117                  261                          196.596           304.8             130               0                 Open   ;
 307                  261                  263                           106.68           304.8             130               0                 Open   ;
 309                  265                  267                          481.584           203.2             130               0                 Open   ;
 311                  193                  267                          356.616           304.8             130               0                 Open   ;
 313                  269                  189                         196.9008           304.8             130               0                 Open   ;
 317                  273                  275                          679.704           203.2             130               0                 Open   ;
 319                  273                  205                          196.596           304.8             130               0                 Open   ;
 325                  269                  271                          393.192           203.2             130               0                 Open   ;
 330                  60                   601                           0.3048             762             140               0               Closed   ;
 333                  601                  61                            0.3048             762             140               0                 Open   ;
 107                  105                  115                         1042.416           304.8    57.168889736               0                 Open   ;
 103                  111                  101                         2221.992           406.4     92.91367092               0                 Open   ;
 329                  61                   121                          14325.6             762    139.34129256               0                 Open   ;
 135                  151                  127                         4056.888           609.6    10.308274373               0                 Open   ;
 163                  125                  151                         1746.504           304.8    49.442401651               0                 Open   ;
 177                  161                  119                         2130.552             762      139.809005               0                 Open   ;
 189                  171                  199                          1234.44             762    78.368669582               0                 Open   ;
 315                  271                  179                           97.536           609.6    47.699427316               0                 Open   ;
 204                  205                  185                       1411.19352           304.8     120.8835079               0                 Open   ;
 219                  161                  193                          810.768           304.8    47.621899935               0                 Open   ;
 225                  111                  191                         1200.912           304.8    129.36875806               0                 Open   ;
 231                  199                  275                          283.464           609.6    37.278154078               0                 Open   ;
 205                  187                  185                        434.30952           304.8    106.44789985               0                 Open   ;
 275                  239                  247                          146.304           304.8    82.013270114               0                 Open   ;
 295                  249                  255                           777.24           304.8    64.049517066               0                 Open   ;
 299                  257                  263                            533.4           203.2    129.36875806               0                 Open   ;
 179                  161                  265                          496.824             762    140.30394857               0                 Open   ;
 243                  239                  207                         2299.716           406.4     85.01740916               0                 Open   ;

[PUMPS]
;ID                   Node1                Node2                Properties          
 10                   Lake                 10                   HEAD     1                      ;
 335                  60                   61                   HEAD     2                      ;

[VALVES]
;ID                   Node1                Node2                            Diameter Type              Setting           Minor Loss

[TAGS]
;type      name       tag       

[DEMANDS]
;ID        Demand     Pattern   
101        11.983982806 1         
101        8.4036141605 1         
105        8.5405198867 1         
105        3.4472483313 1         
111        8.955022477 1         
111        14.599071447 1         
119        11.112076292 1         
119        3.2674412716 1         
121        2.6264448761 1         
121        0.0630901964 2         
127        1.1141728684 1         
127        0.0        1         
127        2.6971058961 1         
151        9.1152715759 1         
151        1.7078516165 1         
151        0.53942117922 1         
151        1.7431821265 1         
151        0.62143843454 1         
151        0.39115921768 1         
151        0.0630901964 3         
151        0.3716012568 1         
151        2.786693975 1         
161        0.99682510312 1         
161        2.6068869152 1         
161        0.59430965009 1         
161        0.0        1         
161        0.16403451064 1         
169        0.0        1         
169        0.91859325958 1         
171        2.4819683264 1         
171        0.0        1         
179        0.0        1         
179        0.0        1         
179        0.0630901964 4         
179        3.6699567246 1         
185        1.6182635377 1         
185        0.0        1         
187        0.0        1         
187        0.0        1         
191        5.1670870852 1         
191        1.0750569467 1         
193        4.4989619053 1         
193        0.0        1         
207        4.3778287282 1         
207        0.0        1         
207        0.54699200279 1         
207        0.054888470868 1         
207        0.0        1         
207        0.87947733782 1         
207        1.5280445568 1         
207        2.6068869152 1         
207        1.4384564779 1         
207        5.8162852061 1         
239        2.8144536614 1         
239        0.0        1         
239        0.27381145238 1         
239        0.9848379657999999 1         
239        4.049128805 1         
239        1.0397264367 1         
255        2.5482130326 1         
255        3.4396775077 1         
255        1.524259145 1         
257        0.0        1         
257        0.0        1         
275        0.0        1         
275        2.8144536614 1         
275        0.0630901964 5         

[STATUS]
;ID        Setting   
10         Closed    

[PATTERNS]
;ID        Multipliers

1 1.340000 1.940000 1.460000 1.440000 0.760000 0.920000
1 0.850000 1.070000 0.960000 1.100000 1.080000 1.190000
1 1.160000 1.080000 0.960000 0.830000 0.790000 0.740000
1 0.640000 0.640000 0.850000 0.960000 1.240000 1.670000

2 0.000000 0.000000 0.000000 0.000000 0.000000 1219.000000
2 0.000000 0.000000 0.000000 1866.000000 1836.000000 1818.000000
2 1818.000000 1822.000000 1822.000000 1817.000000 1824.000000 1816.000000
2 1833.000000 1817.000000 1830.000000 1814.000000 1840.000000 1859.000000

3 620.000000 620.000000 620.000000 620.000000 620.000000 360.000000
3 360.000000 0.000000 0.000000 0.000000 0.000000 360.000000
3 360.000000 360.000000 360.000000 360.000000 0.000000 0.000000
3 0.000000 0.000000 0.000000 0.000000 360.000000 360.000000

4 1637.000000 1706.000000 1719.000000 1719.000000 1791.000000 1819.000000
4 1777.000000 1842.000000 1815.000000 1825.000000 1856.000000 1801.000000
4 1819.000000 1733.000000 1664.000000 1620.000000 1613.000000 1620.000000
4 1616.000000 1647.000000 1627.000000 1627.000000 1671.000000 1668.000000

5 4439.000000 4531.000000 4511.000000 4582.000000 4531.000000 4582.000000
5 4572.000000 4613.000000 4643.000000 4643.000000 4592.000000 4613.000000
5 4531.000000 4521.000000 4449.000000 4439.000000 4449.000000 4460.000000
5 4439.000000 4419.000000 4368.000000 4399.000000 4470.000000 4480.000000

[CURVES]
;ID         X-Value      Y-Value     
;PUMP: 1
 1              0.000000    31.699200   ;
 1            126.180393    28.041600   ;
 1            252.360786    19.202400   ;

;PUMP: 2
 2              0.000000    60.960000   ;
 2            504.721571    42.062400   ;
 2            883.262750    26.212800   ;


[CONTROLS]
Pump 10 Open AT TIME 1
Pump 10 Closed AT TIME 15
Pump 335 Open IF Tank 1 below 5.21208
Pump 335 Closed IF Tank 1 above 5.821680000000001
Pipe 330 Closed IF Tank 1 below 5.21208
Pipe 330 Open IF Tank 1 above 5.821680000000001

[RULES]

[ENERGY]
GLOBAL EFFICIENCY      75.0000
GLOBAL PRICE           0.0000
DEMAND CHARGE          0.0000

[EMITTERS]
;ID        Flow coefficient

[QUALITY]

[SOURCES]
;Node      Type       Quality    Pattern   

[REACTIONS]
;Type           Pipe/Tank               Coefficient

 ORDER BULK 1
 ORDER TANK 1
 ORDER WALL 1
 GLOBAL BULK 0.0000    
 GLOBAL WALL 0.0000    
 LIMITING POTENTIAL 0.0000    
 ROUGHNESS CORRELATION 0.0000    

[MIXING]
;Tank ID             Model Fraction

[TIMES]
DURATION             24:00:00
HYDRAULIC TIMESTEP   01:00:00
QUALITY TIMESTEP     00:05:00
PATTERN TIMESTEP     01:00:00
PATTERN START        00:00:00
REPORT TIMESTEP      01:00:00
REPORT START         00:00:00
START CLOCKTIME      00:00:00 AM
RULE TIMESTEP        00:06:00
STATISTIC            NONE      

[REPORT]
STATUS     YES
SUMMARY    NO
PAGE       0

[OPTIONS]
UNITS                LPS                 
HEADLOSS             H-W                 
SPECIFIC GRAVITY     1
VISCOSITY            1
TRIALS               40
ACCURACY             0.001
CHECKFREQ            2
MAXCHECK             10
UNBALANCED           CONTINUE 10
PATTERN              1                   
DEMAND MULTIPLIER    1
EMITTER EXPONENT     0.5
QUALITY              TRACE Lake
DIFFUSIVITY          1
TOLERANCE            0.01

[COORDINATES]
;Node      X-Coord    Y-Coord   
10                  9.000000000         27.850000000
20                 29.440000000         26.910000000
40                 27.020000000          9.810000000
50                 33.010000000          3.010000000
60                 23.900000000         29.940000000
601                23.000000000         29.490000000
61                 23.710000000         29.030000000
101                13.810000000         22.940000000
105                16.970000000         21.280000000
111                20.210000000         17.530000000
113                22.040000000         16.610000000
115                20.980000000         19.180000000
117                21.690000000         21.280000000
119                23.700000000         22.760000000
120                22.080000000         23.100000000
121                23.540000000         25.500000000
125                24.590000000         25.640000000
127                29.290000000         26.400000000
151                28.290000000         21.390000000
161                25.100000000         15.280000000
169                25.680000000         12.740000000
171                26.650000000         11.800000000
179                25.710000000         10.400000000
183                25.450000000         10.180000000
185                25.010000000          9.670000000
187                23.640000000         11.040000000
189                24.150000000         11.370000000
191                22.100000000         14.070000000
193                22.880000000         14.350000000
199                29.420000000          8.440000000
205                29.200000000          6.460000000
207                31.000000000          6.610000000
239                35.760000000          2.310000000
247                35.020000000          2.050000000
249                35.020000000          1.810000000
255                33.510000000          2.450000000
257                21.170000000         23.320000000
261                20.790000000         21.450000000
263                20.320000000         21.570000000
265                25.390000000         13.600000000
267                23.380000000         12.950000000
269                25.030000000         12.140000000
271                25.970000000         11.000000000
273                29.160000000          7.380000000
275                31.070000000          8.290000000
River              24.150000000         31.060000000
Lake                5.240000000         25.890000000
1                  31.520000000         12.550000000
2                  29.210000000          4.170000000
3                  29.820000000         30.750000000

[VERTICES]
;Link      X-Coord    Y-Coord   

[LABELS]
 8.00             29.42            "LAKE"
 25.00            31.10            "RIVER"

[BACKDROP]
DIMENSIONS    6.16    -1.55    46.70    32.61
UNITS    NONE
OFFSET    0.00    0.00

[END]
